data original/sourcebus_22000.trafo_75612672_75612672/Loads.dss
New Load.75619208_nmi_elem_75619208 bus1=3097742.1.2.3 kV=0.4 Vminpu=0.7 Vmaxpu=1.3 model=1 kW=0.0 kvar=0.0 Phases=3
New Load.75619564_nmi_elem_75619564 bus1=3099366.1.2.3 kV=0.4 Vminpu=0.7 Vmaxpu=1.3 model=1 kW=0.0 kvar=0.0 Phases=3
New Load.75619565_nmi_elem_75619565 bus1=3099965.1.2.3 kV=0.4 Vminpu=0.7 Vmaxpu=1.3 model=1 kW=0.0 kvar=0.0 Phases=3
New Load.75622583_nmi_elem_75622583 bus1=3099387.1.2.3 kV=0.4 Vminpu=0.7 Vmaxpu=1.3 model=1 kW=0.0 kvar=0.0 Phases=3
New Load.NMI_elem_75613943 bus1=3102604.2 kV=0.23094010767585033 Vminpu=0.7 Vmaxpu=1.3 model=1 kW=4.498216212361079 kvar=0.9134017593242041 Phases=1
New Load.NMI_elem_75613946 bus1=3101179.1.2.3 kV=0.4 Vminpu=0.7 Vmaxpu=1.3 model=1 kW=3.1304196501588177 kvar=0.6356588213836174 Phases=3
New Load.NMI_elem_75613947 bus1=3099803.2.3 kV=0.4 Vminpu=0.7 Vmaxpu=1.3 model=1 kW=1.858646386547992 kvar=0.3774142458446669 Phases=2
New Load.NMI_elem_75613948 bus1=3099120.1.2.3 kV=0.4 Vminpu=0.7 Vmaxpu=1.3 model=1 kW=0.4450562186788495 kvar=0.09037251967176164 Phases=3
New Load.NMI_elem_75613949 bus1=3102607.2 kV=0.23094010767585033 Vminpu=0.7 Vmaxpu=1.3 model=1 kW=2.2041017455920424 kvar=0.4475619483609907 Phases=1
New Load.NMI_elem_75613950 bus1=3102608.3 kV=0.23094010767585033 Vminpu=0.7 Vmaxpu=1.3 model=1 kW=2.7685073902168797 kvar=0.5621694026127819 Phases=1
New Load.NMI_elem_75614005 bus1=3102628.2 kV=0.23094010767585033 Vminpu=0.7 Vmaxpu=1.3 model=1 kW=2.5179307782682034 kvar=0.5112876514042772 Phases=1
New Load.NMI_elem_75614006 bus1=3102629.1 kV=0.23094010767585033 Vminpu=0.7 Vmaxpu=1.3 model=1 kW=2.9984053350818898 kvar=0.608852171379581 Phases=1
New Load.NMI_elem_75614007 bus1=3102630.3 kV=0.23094010767585033 Vminpu=0.7 Vmaxpu=1.3 model=1 kW=2.5751011016132614 kvar=0.5228965806907375 Phases=1
New Load.NMI_elem_75614008 bus1=3101599.1.2.3 kV=0.4 Vminpu=0.7 Vmaxpu=1.3 model=1 kW=4.8497533207751164 kvar=0.9847844137219093 Phases=3
New Load.NMI_elem_75614009 bus1=3101600.1.2.3 kV=0.4 Vminpu=0.7 Vmaxpu=1.3 model=1 kW=4.296295219430354 kvar=0.8723999529458026 Phases=3
New Load.NMI_elem_75614010 bus1=3101348.1.2.3 kV=0.4 Vminpu=0.7 Vmaxpu=1.3 model=1 kW=5.485926090454545 kvar=1.1139648042648387 Phases=3
New Load.NMI_elem_75614011 bus1=3101477.1.2.3 kV=0.4 Vminpu=0.7 Vmaxpu=1.3 model=1 kW=2.834192417889043 kvar=0.5755073163555989 Phases=3
New Load.NMI_elem_75614012 bus1=3100604.1.2.3 kV=0.4 Vminpu=0.7 Vmaxpu=1.3 model=1 kW=1.88783987396291 kvar=0.3833422362983758 Phases=3
New Load.NMI_elem_75614036 bus1=3099414.1.2.3 kV=0.4 Vminpu=0.7 Vmaxpu=1.3 model=1 kW=2.436432529410023 kvar=0.4947387261471182 Phases=3
New Load.NMI_elem_75614037 bus1=3099546.1.2.3 kV=0.4 Vminpu=0.7 Vmaxpu=1.3 model=1 kW=2.714986093292986 kvar=0.5513014397440213 Phases=3
New Load.NMI_elem_75614038 bus1=3099542.1.2.3 kV=0.4 Vminpu=0.7 Vmaxpu=1.3 model=1 kW=5.077218890703741 kvar=1.0309732676919658 Phases=3
New Load.NMI_elem_75614039 bus1=3099124.1.2.3 kV=0.4 Vminpu=0.7 Vmaxpu=1.3 model=1 kW=5.331444761081873 kvar=1.0825960324294637 Phases=3
New Load.NMI_elem_75614040 bus1=3100829.1.2.3 kV=0.4 Vminpu=0.7 Vmaxpu=1.3 model=1 kW=4.516462272500067 kvar=0.9171067798578744 Phases=3
New Load.NMI_elem_75614041 bus1=3099501.1.2.3 kV=0.4 Vminpu=0.7 Vmaxpu=1.3 model=1 kW=5.010316979538507 kvar=1.0173882552168987 Phases=3
New Load.NMI_elem_75614042 bus1=3099157.1.2.3 kV=0.4 Vminpu=0.7 Vmaxpu=1.3 model=1 kW=1.5776599837120586 kvar=0.32035752322843547 Phases=3
New Load.NMI_elem_75614043 bus1=3100619.1.2.3 kV=0.4 Vminpu=0.7 Vmaxpu=1.3 model=1 kW=4.082210495751362 kvar=0.8289281956933456 Phases=3
New Load.NMI_elem_75614044 bus1=3097742.1.2.3 kV=0.4 Vminpu=0.7 Vmaxpu=1.3 model=1 kW=4.26953445496426 kvar=0.8669659479557758 Phases=3
New Load.NMI_elem_75614045 bus1=3102642.2 kV=0.23094010767585033 Vminpu=0.7 Vmaxpu=1.3 model=1 kW=6.061279742376043 kvar=1.2307953462149013 Phases=1
New Load.NMI_elem_75614046 bus1=3100190.1.2.3 kV=0.4 Vminpu=0.7 Vmaxpu=1.3 model=1 kW=2.674845178602138 kvar=0.5431504793702738 Phases=3
New Load.NMI_elem_75614047 bus1=3100817.1.2.3 kV=0.4 Vminpu=0.7 Vmaxpu=1.3 model=1 kW=1.7807973961192676 kvar=0.36160633411650067 Phases=3
New Load.NMI_elem_75614050 bus1=3102643.2 kV=0.23094010767585033 Vminpu=0.7 Vmaxpu=1.3 model=1 kW=4.23547563765584 kvar=0.8600500101303497 Phases=1
New Load.NMI_elem_75614051 bus1=3099200.1.2.3 kV=0.4 Vminpu=0.7 Vmaxpu=1.3 model=1 kW=3.4436046551106703 kvar=0.6992537490197945 Phases=3
New Load.NMI_elem_75614052 bus1=3102644.3 kV=0.23094010767585033 Vminpu=0.7 Vmaxpu=1.3 model=1 kW=1.2297719017191842 kvar=0.24971583524842977 Phases=1
New Load.NMI_elem_75614053 bus1=3101128.1.2.3 kV=0.4 Vminpu=0.7 Vmaxpu=1.3 model=1 kW=2.008262618035453 kvar=0.40779511741961777 Phases=3
New Load.NMI_elem_75614054 bus1=3102645.1 kV=0.23094010767585033 Vminpu=0.7 Vmaxpu=1.3 model=1 kW=4.565117659509728 kvar=0.9269866775766852 Phases=1
New Load.NMI_elem_75614055 bus1=3102646.1 kV=0.23094010767585033 Vminpu=0.7 Vmaxpu=1.3 model=1 kW=2.5787503600427177 kvar=0.5236375942197302 Phases=1
New Load.NMI_elem_75614056 bus1=3101502.1.2.3 kV=0.4 Vminpu=0.7 Vmaxpu=1.3 model=1 kW=4.360763827626032 kvar=0.8854908621789556 Phases=3
New Load.NMI_elem_75614057 bus1=3099563.1.2.3 kV=0.4 Vminpu=0.7 Vmaxpu=1.3 model=1 kW=6.143993946694125 kvar=1.2475911817591383 Phases=3
New Load.NMI_elem_75614058 bus1=3099125.1.2.3 kV=0.4 Vminpu=0.7 Vmaxpu=1.3 model=1 kW=1.767417013886221 kvar=0.3588893316214872 Phases=3
New Load.NMI_elem_75614059 bus1=3100286.1.2.3 kV=0.4 Vminpu=0.7 Vmaxpu=1.3 model=1 kW=3.3061525023839167 kvar=0.6713428989858394 Phases=3
New Load.NMI_elem_75614060 bus1=3099543.1.2.3 kV=0.4 Vminpu=0.7 Vmaxpu=1.3 model=1 kW=4.156409995742338 kvar=0.8439950467812262 Phases=3
New Load.NMI_elem_75614061 bus1=3102647.1 kV=0.23094010767585033 Vminpu=0.7 Vmaxpu=1.3 model=1 kW=4.383875565670963 kvar=0.8901839007512831 Phases=1
New Load.NMI_elem_75614062 bus1=3099531.1.2.3 kV=0.4 Vminpu=0.7 Vmaxpu=1.3 model=1 kW=4.623504402331269 kvar=0.9388426113728097 Phases=3
New Load.NMI_elem_75614397 bus1=3102734.1 kV=0.23094010767585033 Vminpu=0.7 Vmaxpu=1.3 model=1 kW=2.3948605602772273 kvar=0.48629717777509457 Phases=1
New Load.NMI_elem_75614398 bus1=3102735.2 kV=0.23094010767585033 Vminpu=0.7 Vmaxpu=1.3 model=1 kW=1.920467746009755 kvar=0.38996760829554583 Phases=1
New Load.NMI_elem_75614399 bus1=3102736.1 kV=0.23094010767585033 Vminpu=0.7 Vmaxpu=1.3 model=1 kW=1.364791447501259 kvar=0.27713272337434947 Phases=1
New Load.NMI_elem_75614400 bus1=3099366.1.2.3 kV=0.4 Vminpu=0.7 Vmaxpu=1.3 model=1 kW=1.831885854090191 kvar=0.37198028796593297 Phases=3
New Load.NMI_elem_75614401 bus1=3099965.1.2.3 kV=0.4 Vminpu=0.7 Vmaxpu=1.3 model=1 kW=1.1263786823049977 kvar=0.22872094659554734 Phases=3
New Load.NMI_elem_75614402 bus1=3101202.1.2.3 kV=0.4 Vminpu=0.7 Vmaxpu=1.3 model=1 kW=1.619017317879392 kvar=0.32875548811184707 Phases=3
New Load.NMI_elem_75614403 bus1=3102737.3 kV=0.23094010767585033 Vminpu=0.7 Vmaxpu=1.3 model=1 kW=2.7003895235917463 kvar=0.5483374798506365 Phases=1
New Load.NMI_elem_75614404 bus1=3102738.3 kV=0.23094010767585033 Vminpu=0.7 Vmaxpu=1.3 model=1 kW=1.6445615468648533 kvar=0.3339424650365632 Phases=1
New Load.NMI_elem_75614405 bus1=3100580.1.2.3 kV=0.4 Vminpu=0.7 Vmaxpu=1.3 model=1 kW=1.5576968506731395 kvar=0.3163038361714941 Phases=3
New Load.NMI_elem_75614406 bus1=3099538.1.2.3 kV=0.4 Vminpu=0.7 Vmaxpu=1.3 model=1 kW=2.277085058114826 kvar=0.46238184205050004 Phases=3
New Load.NMI_elem_75614407 bus1=3099539.1.2.3 kV=0.4 Vminpu=0.7 Vmaxpu=1.3 model=1 kW=3.4083294183257644 kvar=0.6920908066847042 Phases=3
New Load.NMI_elem_75614408 bus1=3099668.1.2.3 kV=0.4 Vminpu=0.7 Vmaxpu=1.3 model=1 kW=4.925169936267454 kvar=1.000098410653333 Phases=3
New Load.NMI_elem_75614560 bus1=3100015.1.2.3 kV=0.4 Vminpu=0.7 Vmaxpu=1.3 model=1 kW=3.8827221097653157 kvar=0.7884203512229802 Phases=3
New Load.NMI_elem_75614561 bus1=3102739.3 kV=0.23094010767585033 Vminpu=0.7 Vmaxpu=1.3 model=1 kW=1.188414683555997 kvar=0.2413178939206647 Phases=1
New Load.NMI_elem_75614562 bus1=3102740.2 kV=0.23094010767585033 Vminpu=0.7 Vmaxpu=1.3 model=1 kW=2.927854629503786 kvar=0.5945262395981072 Phases=1
New Load.NMI_elem_75614563 bus1=3099290.1.2.3 kV=0.4 Vminpu=0.7 Vmaxpu=1.3 model=1 kW=2.2478916867040533 kvar=0.4564538751524376 Phases=3
New Load.NMI_elem_75614564 bus1=3100950.1.2.3 kV=0.4 Vminpu=0.7 Vmaxpu=1.3 model=1 kW=1.6299647451553214 kvar=0.3309784580318855 Phases=3
New Load.NMI_elem_75616814 bus1=3102903.2 kV=0.23094010767585033 Vminpu=0.7 Vmaxpu=1.3 model=1 kW=3.893669421037101 kvar=0.7906432975873722 Phases=1
New Load.NMI_elem_75616841 bus1=3102909.3 kV=0.23094010767585033 Vminpu=0.7 Vmaxpu=1.3 model=1 kW=3.544565151576032 kvar=0.719754652208995 Phases=1
New Load.NMI_elem_75617079 bus1=3103007.3 kV=0.23094010767585033 Vminpu=0.7 Vmaxpu=1.3 model=1 kW=3.2854738353002504 kvar=0.6671439165441336 Phases=1
New Load.NMI_elem_75617419 bus1=3099387.1.2.3 kV=0.4 Vminpu=0.7 Vmaxpu=1.3 model=1 kW=5.639191696375607 kvar=1.1450867129244287 Phases=3
New Load.NMI_elem_75617547 bus1=3103127.3 kV=0.23094010767585033 Vminpu=0.7 Vmaxpu=1.3 model=1 kW=0.6969208383097301 kvar=0.14151581199510116 Phases=1
New Load.NMI_elem_75617548 bus1=3103128.1.2.3 kV=0.4 Vminpu=0.7 Vmaxpu=1.3 model=1 kW=10.604788968394518 kvar=2.153394244228454 Phases=3
New Load.NMI_elem_75617549 bus1=3103129.1 kV=0.23094010767585033 Vminpu=0.7 Vmaxpu=1.3 model=1 kW=0.9828444321958175 kvar=0.19957507401327104 Phases=1
New Load.NMI_elem_75617550 bus1=3103130.3 kV=0.23094010767585033 Vminpu=0.7 Vmaxpu=1.3 model=1 kW=1.2553161307046454 kvar=0.25490281217314587 Phases=1
New Load.NMI_elem_75617551 bus1=3103131.1 kV=0.23094010767585033 Vminpu=0.7 Vmaxpu=1.3 model=1 kW=0.9294662980358136 kvar=0.18873618158359848 Phases=1
New Load.NMI_elem_75617552 bus1=3103132.2 kV=0.23094010767585033 Vminpu=0.7 Vmaxpu=1.3 model=1 kW=0.7813527501386595 kvar=0.1586604429258519 Phases=1
New Load.NMI_elem_75617570 bus1=3100358.1.2.3 kV=0.4 Vminpu=0.7 Vmaxpu=1.3 model=1 kW=3.2927721201508704 kvar=0.668625896490826 Phases=3
New Load.NMI_elem_75617754 bus1=3103169.3 kV=0.23094010767585033 Vminpu=0.7 Vmaxpu=1.3 model=1 kW=3.1304196501588177 kvar=0.6356588213836174 Phases=1
New Load.NMI_elem_75617769 bus1=3100137.1.2.3 kV=0.4 Vminpu=0.7 Vmaxpu=1.3 model=1 kW=3.1304196501588177 kvar=0.6356588213836174 Phases=3
New Load.NMI_elem_75617855 bus1=3103184.2 kV=0.23094010767585033 Vminpu=0.7 Vmaxpu=1.3 model=1 kW=2.6832168429932723 kvar=0.5448504183288149 Phases=1
